<?xml version='1.0' encoding='UTF-8'?>
<additional>
  <inductionLoop id="7_0" lane="a77[1][1]_0" pos="-5" freq="1800" file="e1_real_output.xml" />
  <inductionLoop id="8_0" lane="a117_0" pos="-5" freq="1800" file="e1_real_output.xml" />
  <inductionLoop id="10_0" lane="b2[1][1][1]b_0" pos="-5" freq="1800" file="e1_real_output.xml" />
  <inductionLoop id="15_0" lane="b71_0" pos="-5" freq="1800" file="e1_real_output.xml" />
  <inductionLoop id="16_0" lane="b53_0" pos="-5" freq="1800" file="e1_real_output.xml" />
  <inductionLoop id="17_0" lane="b53_0" pos="-5" freq="1800" file="e1_real_output.xml" />
  <inductionLoop id="101_0" lane="a60_0" pos="-5" freq="1800" file="e1_real_output.xml" />
  <inductionLoop id="102_0" lane="a210_0" pos="-5" freq="1800" file="e1_real_output.xml" />
  <inductionLoop id="105_0" lane="a77[1][1]_0" pos="-5" freq="1800" file="e1_real_output.xml" />
  <inductionLoop id="106_0" lane="a78[0]_0" pos="-5" freq="1800" file="e1_real_output.xml" />
  <inductionLoop id="107_0" lane="a201_0" pos="-5" freq="1800" file="e1_real_output.xml" />
  <inductionLoop id="113_0" lane="b2[1][0]_0" pos="-5" freq="1800" file="e1_real_output.xml" />
  <inductionLoop id="114_0" lane="a201_0" pos="-5" freq="1800" file="e1_real_output.xml" />
  <inductionLoop id="115_0" lane="a204a[0]_0" pos="-5" freq="1800" file="e1_real_output.xml" />
  <inductionLoop id="123_0" lane="b4[1][1][0]_0" pos="-5" freq="1800" file="e1_real_output.xml" />
  <inductionLoop id="124_0" lane="b76_0" pos="-5" freq="1800" file="e1_real_output.xml" />
  <inductionLoop id="125_0" lane="b53_0" pos="-5" freq="1800" file="e1_real_output.xml" />
  <inductionLoop id="126_0" lane="b12_0" pos="-5" freq="1800" file="e1_real_output.xml" />
  <inductionLoop id="127_0" lane="a204[1][1]_0" pos="-5" freq="1800" file="e1_real_output.xml" />
  <inductionLoop id="130_0" lane="a203[0]_0" pos="-5" freq="1800" file="e1_real_output.xml" />
  <inductionLoop id="131_0" lane="a204[1][1]_0" pos="-5" freq="1800" file="e1_real_output.xml" />
  <inductionLoop id="250_0" lane="a210_0" pos="-5" freq="1800" file="e1_real_output.xml" />
  <inductionLoop id="254_0" lane="a43[0]_0" pos="-5" freq="1800" file="e1_real_output.xml" />
  <inductionLoop id="261_0" lane="b31_0" pos="-5" freq="1800" file="e1_real_output.xml" />
  <inductionLoop id="266_0" lane="b15_0" pos="-5" freq="1800" file="e1_real_output.xml" />
  <inductionLoop id="333_0" lane="a55_0" pos="-5" freq="1800" file="e1_real_output.xml" />
  <inductionLoop id="345_0" lane="a210_0" pos="-5" freq="1800" file="e1_real_output.xml" />
  <inductionLoop id="349_0" lane="a134_0" pos="-5" freq="1800" file="e1_real_output.xml" />
  <inductionLoop id="353_0" lane="b2[1][1][1]b_0" pos="-5" freq="1800" file="e1_real_output.xml" />
  <inductionLoop id="354_0" lane="b2[1][0]_0" pos="-5" freq="1800" file="e1_real_output.xml" />
  <inductionLoop id="355_0" lane="b23_0" pos="-5" freq="1800" file="e1_real_output.xml" />
  <inductionLoop id="356_0" lane="b38[0]_0" pos="-5" freq="1800" file="e1_real_output.xml" />
  <inductionLoop id="357_0" lane="b26.-170_0" pos="-5" freq="1800" file="e1_real_output.xml" />
  <inductionLoop id="366_0" lane="a122_0" pos="-5" freq="1800" file="e1_real_output.xml" />
  <inductionLoop id="367_0" lane="b17[1]_0" pos="-5" freq="1800" file="e1_real_output.xml" />
  <inductionLoop id="368_0" lane="b37_0" pos="-5" freq="1800" file="e1_real_output.xml" />
  <inductionLoop id="469_0" lane="b20+19a_0" pos="-5" freq="1800" file="e1_real_output.xml" />
  <inductionLoop id="470_0" lane="b38[0]_0" pos="-5" freq="1800" file="e1_real_output.xml" />
  <inductionLoop id="475_0" lane="b4[1][1][1]_0" pos="-5" freq="1800" file="e1_real_output.xml" />
  <inductionLoop id="476_0" lane="b70_0" pos="-5" freq="1800" file="e1_real_output.xml" />
  <inductionLoop id="553_0" lane="a20001+87[1][0]_0" pos="-5" freq="1800" file="e1_real_output.xml" />
  <inductionLoop id="554_0" lane="a191_0" pos="-5" freq="1800" file="e1_real_output.xml" />
  <inductionLoop id="560_0" lane="a67_0" pos="-5" freq="1800" file="e1_real_output.xml" />
  <inductionLoop id="561_0" lane="b2[0]_0" pos="-5" freq="1800" file="e1_real_output.xml" />
  <inductionLoop id="562_0" lane="b2[1][0]_0" pos="-5" freq="1800" file="e1_real_output.xml" />
  <inductionLoop id="566_0" lane="b4[1][1][1]_0" pos="-5" freq="1800" file="e1_real_output.xml" />
  <inductionLoop id="568_0" lane="b17[0]_0" pos="-5" freq="1800" file="e1_real_output.xml" />
  <inductionLoop id="569_0" lane="b55_0" pos="-5" freq="1800" file="e1_real_output.xml" />
  <inductionLoop id="574_0" lane="a195_0" pos="-5" freq="1800" file="e1_real_output.xml" />
  <inductionLoop id="685_0" lane="a181_0" pos="-5" freq="1800" file="e1_real_output.xml" />
  <inductionLoop id="757_0" lane="b38[1][0]_0" pos="-5" freq="1800" file="e1_real_output.xml" />
  <inductionLoop id="762_0" lane="b3[1]_0" pos="-5" freq="1800" file="e1_real_output.xml" />
  <inductionLoop id="865_0" lane="a153_0" pos="-5" freq="1800" file="e1_real_output.xml" />
  <inductionLoop id="872_0" lane="b55_0" pos="-5" freq="1800" file="e1_real_output.xml" />
  <inductionLoop id="979_0" lane="a71_0" pos="-5" freq="1800" file="e1_real_output.xml" />
  <inductionLoop id="986_0" lane="b10_0" pos="-5" freq="1800" file="e1_real_output.xml" />
  <inductionLoop id="987_0" lane="a55_0" pos="-5" freq="1800" file="e1_real_output.xml" />
  <inductionLoop id="988_0" lane="b12_0" pos="-5" freq="1800" file="e1_real_output.xml" />
  <inductionLoop id="989_0" lane="b20+19a_0" pos="-5" freq="1800" file="e1_real_output.xml" />
  <inductionLoop id="1108_0" lane="a201_0" pos="-5" freq="1800" file="e1_real_output.xml" />
  <inductionLoop id="1112_0" lane="a104_0" pos="-5" freq="1800" file="e1_real_output.xml" />
  <inductionLoop id="1205_0" lane="b47_0" pos="-5" freq="1800" file="e1_real_output.xml" />
  <inductionLoop id="1213_0" lane="b8_0" pos="-5" freq="1800" file="e1_real_output.xml" />
  <inductionLoop id="1424_0" lane="b38[0]a_0" pos="-5" freq="1800" file="e1_real_output.xml" />
  <inductionLoop id="1658_0" lane="a124_0" pos="-5" freq="1800" file="e1_real_output.xml" />
  <inductionLoop id="1662_0" lane="a195_0" pos="-5" freq="1800" file="e1_real_output.xml" />
  <inductionLoop id="1776_0" lane="a190_0" pos="-5" freq="1800" file="e1_real_output.xml" />
  <inductionLoop id="1778_0" lane="a11_0" pos="-5" freq="1800" file="e1_real_output.xml" />
  <inductionLoop id="2083_0" lane="a43[1]_0" pos="-5" freq="1800" file="e1_real_output.xml" />
  <inductionLoop id="2096_0" lane="b56[1][1]_0" pos="-5" freq="1800" file="e1_real_output.xml" />
  <inductionLoop id="2102_0" lane="b17[1]_0" pos="-5" freq="1800" file="e1_real_output.xml" />
  <inductionLoop id="2616_0" lane="a60_0" pos="-5" freq="1800" file="e1_real_output.xml" />
  <inductionLoop id="2864_0" lane="a103_0" pos="-5" freq="1800" file="e1_real_output.xml" />
  <inductionLoop id="3178_0" lane="a161_0" pos="-5" freq="1800" file="e1_real_output.xml" />
  <inductionLoop id="3584_0" lane="a78[0]_0" pos="-5" freq="1800" file="e1_real_output.xml" />
  <inductionLoop id="4988_0" lane="b56[0]_0" pos="-5" freq="1800" file="e1_real_output.xml" />
  <inductionLoop id="5826_0" lane="b22[1]_0" pos="-5" freq="1800" file="e1_real_output.xml" />
  <inductionLoop id="6140_0" lane="a17_0" pos="-5" freq="1800" file="e1_real_output.xml" />
  <inductionLoop id="6388_0" lane="b12_0" pos="-5" freq="1800" file="e1_real_output.xml" />
  <inductionLoop id="12040_0" lane="b2[1][1][1]_0" pos="-5" freq="1800" file="e1_real_output.xml" />
  <inductionLoop id="15117_0" lane="b2[1][1][0]_0" pos="-5" freq="1800" file="e1_real_output.xml" />
  <inductionLoop id="26893_0" lane="a15_0" pos="-5" freq="1800" file="e1_real_output.xml" />
  <inductionLoop id="26990_0" lane="b51_0" pos="-5" freq="1800" file="e1_real_output.xml" />
  <inductionLoop id="29994_0" lane="a171_0" pos="-5" freq="1800" file="e1_real_output.xml" />
  <inductionLoop id="53818_0" lane="b34[1][1]_0" pos="-5" freq="1800" file="e1_real_output.xml" />
</additional>