<?xml version="1.0" encoding="UTF-8"?>

<!-- generated on 2025-03-21 17:17:27.021526 by routeSampler.py v1_21_0+0000-d7b3b481c43
<configuration>
    <route-files value="configs/scenarioCollection\01-02-2024_03-00sampleRoutes.rou.xml"/>
    <edgedata-files value="configs/prova\edgedata_01-02-2024_03.xml"/>
    <output-file value="configs/scenarioCollection\01-02-2024_03-00\generatedRoutes.rou.xml"/>
    <total-count value="100"/>
    <optimize value="full"/>
    <min-count value="2"/>
</configuration>
-->

<routes xmlns:xsi="http://www.w3.org/2001/XMLSchema-instance" xsi:noNamespaceSchemaLocation="http://sumo.dlr.de/xsd/routes_file.xsd">
<!-- begin="0.0" end="3600.0" -->
    <vehicle id="0" depart="37.54">
        <route edges="a201 a201c a204a[0] a124 b12 b50[0] b50[1] b50[1]a a181 a18 a17 a71 b2[0] b2[1][0] b2[1][1][0] b2[1][1][1] b2[1][1][1]b"/>
    </vehicle>
    <vehicle id="1" depart="128.06">
        <route edges="a20001+87[1][0] a87[1][1] am90 a171 a161 a122 a1b a1 a204a[0] a204b[0] a204[1][0] a204[1][1]"/>
    </vehicle>
    <vehicle id="2" depart="136.88">
        <route edges="a212 a10 a13 a104 a24 a22 a59 a53cd a53[0] a53[1][0] a79 a68 a11 b38[0] b38[0]a b38[1][0] b38[1][1] b38[1][1]a b56[1][0] b56[1][1] b5[1][0]+66 b5[1][1][1] b8 b10"/>
    </vehicle>
    <vehicle id="3" depart="153.48">
        <route edges="b71 b101 b35[0] b39[0] b39[1][0] b39[1][1][0] b39[1][1][1] b45 a67 a80 a127 a77[1][0] a77ab a77bc a77cd a53cd a53[0] a78[1][1] a189[0] a189[1][0]+20000 a189[1][1] a188 a87[0] a20001+87[1][0] a87[1][1] am90 am91 a88 a187 a190 a77[0]"/>
    </vehicle>
    <vehicle id="4" depart="172.19">
        <route edges="a195 a61 a58[0] a58[1] a66 a119 a116 a46 a201 a201c a204a[0] a204b[0] a204[1][0] a204[1][1]"/>
    </vehicle>
    <vehicle id="5" depart="232.62">
        <route edges="b49[0] b49[1] b55 b35[1][1][0] b20000+35[1][1][1][0] b35[1][1][1][1] a203[1] a203[1]b a202 a34 a134 a134b a133 a31 a201 a201c a204a[0] a204b[0] a204[1][0] a204[1][1]"/>
    </vehicle>
    <vehicle id="6" depart="247.37">
        <route edges="a195 a61 a58[0] a58[1] a66 a119 a116 a46 a201 a201c a204a[0] a204b[0] a204[1][0] a204[1][1]"/>
    </vehicle>
    <vehicle id="7" depart="249.32">
        <route edges="a195 a61 a58[0] a58[1] a66 a119 a116 a46 a201 a201c a204a[0] a204b[0] a204[1][0] a204[1][1]"/>
    </vehicle>
    <vehicle id="8" depart="275.10">
        <route edges="a20001+87[1][0] a87[1][1] am90 a171 a161 a122 a1b a1 a204a[0] a204b[0] a204[1][0] a204[1][1]"/>
    </vehicle>
    <vehicle id="9" depart="297.42">
        <route edges="a203[0] b12 b56[0] b56[1][0] b56[1][1] b5[1][0]+66 b5[1][1][1] b8 b10"/>
    </vehicle>
    <vehicle id="10" depart="367.74">
        <route edges="a11 b38[0] b38[0]a b46 a181 a18 a17 a71 a67 a80 a127 a77[1][0] a77[1][1]"/>
    </vehicle>
    <vehicle id="11" depart="379.32">
        <route edges="b49[0] b49[1] b55 b35[1][1][0] b20000+35[1][1][1][0] b35[1][1][1][1] a203[1] a203[1]b a202 a34 a134 a134b a133 a31 a201 a201c a204a[0] a204b[0] a204[1][0] a204[1][1]"/>
    </vehicle>
    <vehicle id="12" depart="380.50">
        <route edges="b49[0] b49[1] b55 b35[1][1][0] b20000+35[1][1][1][0] b35[1][1][1][1] a203[1] a203[1]b a202 a34 a134 a134b a133 a31 a201 a201c a204a[0] a204b[0] a204[1][0] a204[1][1]"/>
    </vehicle>
    <vehicle id="13" depart="410.24">
        <route edges="a195 a61 a58[0] a58[1] a66 a119 a116 a46 a201 a201c a204a[0] a204b[0] a204[1][0] a204[1][1]"/>
    </vehicle>
    <vehicle id="14" depart="450.84">
        <route edges="b71 b101 b35[0] b39[0] b39[1][0] b39[1][1][0] b39[1][1][1] b45 a67 a80 a127 a77[1][0] a77ab a77bc a77cd a53cd a53[0] a78[1][1] a189[0] a189[1][0]+20000 a189[1][1] a188 a87[0] a20001+87[1][0] a87[1][1] am90 am91 a88 a187 a190 a77[0]"/>
    </vehicle>
    <vehicle id="15" depart="457.92">
        <route edges="a203[0] b12 b56[0] b56[1][0] b56[1][1] b5[1][0]+66 b5[1][1][1] b8 b10"/>
    </vehicle>
    <vehicle id="16" depart="479.32">
        <route edges="a55 a55b a125 b12 b50[0] b50[1] b50[1]a a181 a18 a17 a71 a67 a80 a127 a77[1][0] a77ab a77bc a77cd a53cd a53[0] a78[1][1] a189[0] a189[1][0]+20000 a189[1][1] a188 a87[0] a20001+87[1][0] a87[1][1] am90 am91 a88 a187 a190"/>
    </vehicle>
    <vehicle id="17" depart="481.69">
        <route edges="a78[0] a56a a56b a77bc a77cd a53cd a53[0] a53[1][0] a79 a68 a11 b2[0] b2[1][0] b2[1][1][0] b2[1][1][1] b2[1][1][1]b"/>
    </vehicle>
    <vehicle id="18" depart="537.26">
        <route edges="a210 a43[0] a43[1] a201 a201c a204a[0] a204b[0] a204[1][0] a204[1][1]"/>
    </vehicle>
    <vehicle id="19" depart="636.79">
        <route edges="b15 b13[1] b4[0] b4[1][1][0] b4[1][1][1]"/>
    </vehicle>
    <vehicle id="20" depart="682.90">
        <route edges="a195 a159 a42 a39 a35 a38 a15 a24 a22 a59 a53cd a53[0] a53[1][0] a79 a68 a11 b2[0] b2[1][0] b2[1][1][0] b2[1][1][1] b2[1][1][1]b"/>
    </vehicle>
    <vehicle id="21" depart="715.88">
        <route edges="a210 a43[0] a43[1] a201 a201c a204a[0] a204b[0] a204[1][0] a204[1][1]"/>
    </vehicle>
    <vehicle id="22" depart="817.07">
        <route edges="a201 a201c a204a[0] a124 b12 b50[0] b50[1] b50[1]a a181 a18 a17 a71 b2[0] b2[1][0] b2[1][1][0] b2[1][1][1] b2[1][1][1]b"/>
    </vehicle>
    <vehicle id="23" depart="820.23">
        <route edges="a195 a159 a42 a39 a35 a38 a15 a24 a22 a59 a53cd a53[0] a53[1][0] a79 a68 a11 b2[0] b2[1][0] b2[1][1][0] b2[1][1][1] b2[1][1][1]b"/>
    </vehicle>
    <vehicle id="24" depart="876.52">
        <route edges="b71 b101 b35[0] b39[0] b39[1][0] b39[1][1][0] b39[1][1][1] b45 a67 a80 a127 a77[1][0] a77ab a77bc a77cd a53cd a53[0] a78[1][1] a189[0] a189[1][0]+20000 a189[1][1] a188 a87[0] a20001+87[1][0] a87[1][1] am90 am91 a88 a187 a190 a77[0]"/>
    </vehicle>
    <vehicle id="25" depart="894.89">
        <route edges="b49[0] b49[1] b55 b35[1][1][0] b20000+35[1][1][1][0] b35[1][1][1][1] a203[1] a203[1]b a202 a34 a134 a134b a133 a31 a201 a201c a204a[0] a204b[0] a204[1][0] a204[1][1]"/>
    </vehicle>
    <vehicle id="26" depart="911.01">
        <route edges="b37 b26 b26.-170 b18 b20+19a ba1[1] b1[1] a72[0] a72[1] a69 a161 a122 a1b a1 a204a[0] a204b[0] a204[1][0] a204[1][1]"/>
    </vehicle>
    <vehicle id="27" depart="919.49">
        <route edges="a78[0] a56a a56b a77bc a77cd a53cd a53[0] a53[1][0] a79 a68 a11 b2[0] b2[1][0] b2[1][1][0] b2[1][1][1] b2[1][1][1]b"/>
    </vehicle>
    <vehicle id="28" depart="938.57">
        <route edges="a201 a201c a204a[0] a124 b12 b50[0] b50[1] b50[1]a a181 a18 a17 a71 a67 a80 a127 a77[1][0] a77[1][1]"/>
    </vehicle>
    <vehicle id="29" depart="957.06">
        <route edges="a195 a159 a42 a39 a35 a38 a15 a24 a22 a59 a53cd a53[0] a53[1][0] a79 a68 a11 b2[0] b2[1][0] b2[1][1][0] b2[1][1][1] b2[1][1][1]b"/>
    </vehicle>
    <vehicle id="30" depart="957.67">
        <route edges="b15 b13[1] b4[0] b4[1][1][0] b4[1][1][1]"/>
    </vehicle>
    <vehicle id="31" depart="1005.72">
        <route edges="a201 a201c a204a[0] a124 b12 b50[0] b50[1] b50[1]a a181 a18 a17 a71 b2[0] b2[1][0] b2[1][1][0] b2[1][1][1] b2[1][1][1]b"/>
    </vehicle>
    <vehicle id="32" depart="1159.98">
        <route edges="a195 a61 a58[0] a58[1] a66 a119 a116 a46 a201 a201c a204a[0] a204b[0] a204[1][0] a204[1][1]"/>
    </vehicle>
    <vehicle id="33" depart="1164.60">
        <route edges="a195 a61 a58[0] a58[1] a66 a119 a116 a46 a201 a201c a204a[0] a204b[0] a204[1][0] a204[1][1]"/>
    </vehicle>
    <vehicle id="34" depart="1275.25">
        <route edges="b49[0] b49[1] b55 b35[1][1][0] b20000+35[1][1][1][0] b35[1][1][1][1] a203[1] a203[1]b a202 a34 a134 a134b a133 a31 a201 a201c a204a[0] a204b[0] a204[1][0] a204[1][1]"/>
    </vehicle>
    <vehicle id="35" depart="1277.43">
        <route edges="a201 a201c a204a[0] a124 b12 b50[0] b50[1] b50[1]a a181 a18 a17 a71 a67 a80 a127 a77[1][0] a77[1][1]"/>
    </vehicle>
    <vehicle id="36" depart="1337.07">
        <route edges="a201 a201c a204a[0] a124 b12 b50[0] b50[1] b50[1]a a181 a18 a17 a71 b2[0] b2[1][0] b2[1][1][0] b2[1][1][1] b2[1][1][1]b"/>
    </vehicle>
    <vehicle id="37" depart="1390.86">
        <route edges="a55 a55b a125 b12 b50[0] b50[1] b50[1]a a181 a18 a17 a71 a67 a80 a127 a77[1][0] a77ab a77bc a77cd a53cd a53[0] a78[1][1] a189[0] a189[1][0]+20000 a189[1][1] a188 a87[0] a20001+87[1][0] a87[1][1] am90 am91 a88 a187 a190"/>
    </vehicle>
    <vehicle id="38" depart="1393.48">
        <route edges="a20001+87[1][0] a87[1][1] am90 a171 a161 a122 a1b a1 a204a[0] a204b[0] a204[1][0] a204[1][1]"/>
    </vehicle>
    <vehicle id="39" depart="1395.34">
        <route edges="a195 a61 a58[0] a58[1] a66 a119 a116 a46 a201 a201c a204a[0] a204b[0] a204[1][0] a204[1][1]"/>
    </vehicle>
    <vehicle id="40" depart="1412.62">
        <route edges="b37 b26 b26.-170 b18 b20+19a ba1[1] b1[1] a72[0] a72[1] a69 a161 a122 a1b a1 a204a[0] a204b[0] a204[1][0] a204[1][1]"/>
    </vehicle>
    <vehicle id="41" depart="1457.27">
        <route edges="b15 b13[1] b4[0] b4[1][1][0] b4[1][1][1]"/>
    </vehicle>
    <vehicle id="42" depart="1483.67">
        <route edges="a20001+87[1][0] a87[1][1] am90 a171 a161 a122 a1b a1 a204a[0] a204b[0] a204[1][0] a204[1][1]"/>
    </vehicle>
    <vehicle id="43" depart="1506.89">
        <route edges="a37 a36 a40 a153 a87[0] a20001+87[1][0] a87[1][1] am90 a171 a161 a122 a1b a1 a204a[0] a124 b12 b53 b53a"/>
    </vehicle>
    <vehicle id="44" depart="1527.47">
        <route edges="a20001+87[1][0] a87[1][1] am90 a171 a161 a122 a1b a1 a204a[0] a204b[0] a204[1][0] a204[1][1]"/>
    </vehicle>
    <vehicle id="45" depart="1595.78">
        <route edges="a201 a201c a204a[0] a124 b12 b50[0] b50[1] b50[1]a a181 a18 a17 a71 b2[0] b2[1][0] b2[1][1][0] b2[1][1][1] b2[1][1][1]b"/>
    </vehicle>
    <vehicle id="46" depart="1620.45">
        <route edges="a20001+87[1][0] a87[1][1] am90 a171 a161 a122 a1b a1 a204a[0] a204b[0] a204[1][0] a204[1][1]"/>
    </vehicle>
    <vehicle id="47" depart="1622.23">
        <route edges="b71 b101 b35[0] b39[0] b39[1][0] b39[1][1][0] b39[1][1][1] b45 a67 a80 a127 a77[1][0] a77ab a77bc a77cd a53cd a53[0] a78[1][1] a189[0] a189[1][0]+20000 a189[1][1] a188 a87[0] a20001+87[1][0] a87[1][1] am90 am91 a88 a187 a190 a77[0]"/>
    </vehicle>
    <vehicle id="48" depart="1663.01">
        <route edges="b49[0] b49[1] b55 b35[1][1][0] b20000+35[1][1][1][0] b35[1][1][1][1] a203[1] a203[1]b a202 a34 a134 a134b a133 a31 a201 a201c a204a[0] a204b[0] a204[1][0] a204[1][1]"/>
    </vehicle>
    <vehicle id="49" depart="1707.61">
        <route edges="a212 a10 a13 a104 a24 a22 a59 a53cd a53[0] a53[1][0] a79 a68 a11 b38[0] b38[0]a b38[1][0] b38[1][1] b38[1][1]a b56[1][0] b56[1][1] b5[1][0]+66 b5[1][1][1] b8 b10"/>
    </vehicle>
    <vehicle id="50" depart="1721.72">
        <route edges="b49[0] b49[1] b55 b35[1][1][0] b20000+35[1][1][1][0] b35[1][1][1][1] a203[1] a203[1]b a202 a34 a134 a134b a133 a31 a201 a201c a204a[0] a204b[0] a204[1][0] a204[1][1]"/>
    </vehicle>
    <vehicle id="51" depart="1733.89">
        <route edges="a55 a55b a125 b12 b50[0] b50[1] b50[1]a a181 a18 a17 a71 a67 a80 a127 a77[1][0] a77ab a77bc a77cd a53cd a53[0] a78[1][1] a189[0] a189[1][0]+20000 a189[1][1] a188 a87[0] a20001+87[1][0] a87[1][1] am90 am91 a88 a187 a190"/>
    </vehicle>
    <vehicle id="52" depart="1783.63">
        <route edges="a13 a104 a24 a22 a59 a53cd a53[0] a53[1][0] a79 a68 a11 b2[0] b2[1][0] b2[1][1][0] b2[1][1][1] b2[1][1][1]b"/>
    </vehicle>
    <vehicle id="53" depart="1797.60">
        <route edges="a212 a10 a13 a104 a24 a22 a59 a53cd a53[0] a53[1][0] a79 a68 a11 b38[0] b38[0]a b38[1][0] b38[1][1] b38[1][1]a b56[1][0] b56[1][1] b5[1][0]+66 b5[1][1][1] b8 b10"/>
    </vehicle>
    <vehicle id="54" depart="1830.89">
        <route edges="b49[0] b49[1] b55 b35[1][1][0] b20000+35[1][1][1][0] b35[1][1][1][1] a203[1] a203[1]b a202 a34 a134 a134b a133 a31 a201 a201c a204a[0] a204b[0] a204[1][0] a204[1][1]"/>
    </vehicle>
    <vehicle id="55" depart="1852.77">
        <route edges="a195 a159 a42 a39 a35 a38 a15 a24 a22 a59 a53cd a53[0] a53[1][0] a79 a68 a11 b2[0] b2[1][0] b2[1][1][0] b2[1][1][1] b2[1][1][1]b"/>
    </vehicle>
    <vehicle id="56" depart="1891.82">
        <route edges="a201 a201c a204a[0] a124 b12 b50[0] b50[1] b50[1]a a181 a18 a17 a71 a67 a80 a127 a77[1][0] a77[1][1]"/>
    </vehicle>
    <vehicle id="57" depart="1978.62">
        <route edges="a210 a43[0] a43[1] a201 a201c a204a[0] a204b[0] a204[1][0] a204[1][1]"/>
    </vehicle>
    <vehicle id="58" depart="2095.73">
        <route edges="a195 a159 a42 a39 a35 a38 a15 a24 a22 a59 a53cd a53[0] a53[1][0] a79 a68 a11 b2[0] b2[1][0] b2[1][1][0] b2[1][1][1] b2[1][1][1]b"/>
    </vehicle>
    <vehicle id="59" depart="2210.69">
        <route edges="b34[1][1] b2[1][0] b24 b23 b17[0] b17[1] b8 b4[1][1][1]"/>
    </vehicle>
    <vehicle id="60" depart="2228.21">
        <route edges="b49[0] b49[1] b55 b35[1][1][0] b20000+35[1][1][1][0] b35[1][1][1][1] a203[1] a203[1]b a202 a34 a134 a134b a133 a31 a201 a201c a204a[0] a204b[0] a204[1][0] a204[1][1]"/>
    </vehicle>
    <vehicle id="61" depart="2265.48">
        <route edges="a201 a201c a204a[0] a124 b12 b50[0] b50[1] b50[1]a a181 a18 a17 a71 b2[0] b2[1][0] b2[1][1][0] b2[1][1][1] b2[1][1][1]b"/>
    </vehicle>
    <vehicle id="62" depart="2325.92">
        <route edges="b37 b26 b26.-170 b18 b20+19a ba1[1] b1[1] a72[0] a72[1] a69 a161 a122 a1b a1 a204a[0] a204b[0] a204[1][0] a204[1][1]"/>
    </vehicle>
    <vehicle id="63" depart="2346.16">
        <route edges="a13 a104 a24 a22 a59 a53cd a53[0] a53[1][0] a79 a68 a11 b2[0] b2[1][0] b2[1][1][0] b2[1][1][1] b2[1][1][1]b"/>
    </vehicle>
    <vehicle id="64" depart="2354.67">
        <route edges="b49[0] b49[1] b55 b35[1][1][0] b20000+35[1][1][1][0] b35[1][1][1][1] a203[1] a203[1]b a202 a34 a134 a134b a133 a31 a201 a201c a204a[0] a204b[0] a204[1][0] a204[1][1]"/>
    </vehicle>
    <vehicle id="65" depart="2360.61">
        <route edges="b34[1][1] b2[1][0] b24 b23 b17[0] b17[1] b8 b4[1][1][1]"/>
    </vehicle>
    <vehicle id="66" depart="2371.29">
        <route edges="a78[0] a56a a56b a77bc a77cd a53cd a53[0] a53[1][0] a79 a68 a11 b2[0] b2[1][0] b2[1][1][0] b2[1][1][1] b2[1][1][1]b"/>
    </vehicle>
    <vehicle id="67" depart="2372.53">
        <route edges="b49[0] b49[1] b55 b35[1][1][0] b20000+35[1][1][1][0] b35[1][1][1][1] a203[1] a203[1]b a202 a34 a134 a134b a133 a31 a201 a201c a204a[0] a204b[0] a204[1][0] a204[1][1]"/>
    </vehicle>
    <vehicle id="68" depart="2402.46">
        <route edges="a201 a201c a204a[0] a124 b12 b50[0] b50[1] b50[1]a a181 a18 a17 a71 a67 a80 a127 a77[1][0] a77[1][1]"/>
    </vehicle>
    <vehicle id="69" depart="2451.51">
        <route edges="a201 a201c a204a[0] a124 b12 b50[0] b50[1] b50[1]a a181 a18 a17 a71 a67 a80 a127 a77[1][0] a77[1][1]"/>
    </vehicle>
    <vehicle id="70" depart="2607.54">
        <route edges="a210 a43[0] a43[1] a201 a201c a204a[0] a204b[0] a204[1][0] a204[1][1]"/>
    </vehicle>
    <vehicle id="71" depart="2686.35">
        <route edges="b37 b26 b26.-170 b18 b20+19a ba1[1] b1[1] a72[0] a72[1] a69 a161 a122 a1b a1 a204a[0] a204b[0] a204[1][0] a204[1][1]"/>
    </vehicle>
    <vehicle id="72" depart="2812.21">
        <route edges="b47 b38[1][0] b38[1][1] b39[1][0] b39[1][1][0] b46 a181 a18 a69 a161 a122 a1b a1 a204a[0] a204b[0] a204[1][0] a204[1][1]"/>
    </vehicle>
    <vehicle id="73" depart="2816.95">
        <route edges="a20001+87[1][0] a87[1][1] am90 a171 a161 a122 a1b a1 a204a[0] a204b[0] a204[1][0] a204[1][1]"/>
    </vehicle>
    <vehicle id="74" depart="2821.83">
        <route edges="a195 a159 a42 a39 a35 a38 a15 a24 a22 a59 a53cd a53[0] a53[1][0] a79 a68 a11 b2[0] b2[1][0] b2[1][1][0] b2[1][1][1] b2[1][1][1]b"/>
    </vehicle>
    <vehicle id="75" depart="2845.22">
        <route edges="a195 a61 a58[0] a58[1] a66 a119 a116 a46 a201 a201c a204a[0] a204b[0] a204[1][0] a204[1][1]"/>
    </vehicle>
    <vehicle id="76" depart="2851.54">
        <route edges="b49[0] b49[1] b55 b35[1][1][0] b20000+35[1][1][1][0] b35[1][1][1][1] a203[1] a203[1]b a202 a34 a134 a134b a133 a31 a201 a201c a204a[0] a204b[0] a204[1][0] a204[1][1]"/>
    </vehicle>
    <vehicle id="77" depart="2887.67">
        <route edges="a13 a104 a24 a22 a59 a53cd a53[0] a53[1][0] a79 a68 a11 b2[0] b2[1][0] b2[1][1][0] b2[1][1][1] b2[1][1][1]b"/>
    </vehicle>
    <vehicle id="78" depart="2911.98">
        <route edges="a78[0] a56a a56b a77bc a77cd a53cd a53[0] a53[1][0] a79 a68 a11 b2[0] b2[1][0] b2[1][1][0] b2[1][1][1] b2[1][1][1]b"/>
    </vehicle>
    <vehicle id="79" depart="2918.47">
        <route edges="b49[0] b49[1] b55 b35[1][1][0] b20000+35[1][1][1][0] b35[1][1][1][1] a203[1] a203[1]b a202 a34 a134 a134b a133 a31 a201 a201c a204a[0] a204b[0] a204[1][0] a204[1][1]"/>
    </vehicle>
    <vehicle id="80" depart="2970.48">
        <route edges="a195 a61 a58[0] a58[1] a66 a119 a116 a46 a201 a201c a204a[0] a204b[0] a204[1][0] a204[1][1]"/>
    </vehicle>
    <vehicle id="81" depart="2989.92">
        <route edges="a195 a159 a42 a39 a35 a38 a15 a24 a22 a59 a53cd a53[0] a53[1][0] a79 a68 a11 b2[0] b2[1][0] b2[1][1][0] b2[1][1][1] b2[1][1][1]b"/>
    </vehicle>
    <vehicle id="82" depart="3003.49">
        <route edges="b37 b26 b26.-170 b18 b20+19a ba1[1] b1[1] a72[0] a72[1] a69 a161 a122 a1b a1 a204a[0] a204b[0] a204[1][0] a204[1][1]"/>
    </vehicle>
    <vehicle id="83" depart="3052.86">
        <route edges="a195 a159 a42 a39 a35 a38 a15 a24 a22 a59 a53cd a53[0] a53[1][0] a79 a68 a11 b2[0] b2[1][0] b2[1][1][0] b2[1][1][1] b2[1][1][1]b"/>
    </vehicle>
    <vehicle id="84" depart="3094.43">
        <route edges="a210 a43[0] a43[1] a201 a201c a204a[0] a204b[0] a204[1][0] a204[1][1]"/>
    </vehicle>
    <vehicle id="85" depart="3112.78">
        <route edges="a195 a159 a42 a39 a35 a38 a15 a24 a22 a59 a53cd a53[0] a53[1][0] a79 a68 a11 b2[0] b2[1][0] b2[1][1][0] b2[1][1][1] b2[1][1][1]b"/>
    </vehicle>
    <vehicle id="86" depart="3176.85">
        <route edges="b49[0] b49[1] b55 b35[1][1][0] b20000+35[1][1][1][0] b35[1][1][1][1] a203[1] a203[1]b a202 a34 a134 a134b a133 a31 a201 a201c a204a[0] a204b[0] a204[1][0] a204[1][1]"/>
    </vehicle>
    <vehicle id="87" depart="3201.81">
        <route edges="a78[0] a56a a56b a77bc a77cd a53cd a53[0] a53[1][0] a79 a68 a11 b2[0] b2[1][0] b2[1][1][0] b2[1][1][1] b2[1][1][1]b"/>
    </vehicle>
    <vehicle id="88" depart="3224.93">
        <route edges="a195 a159 a42 a39 a35 a38 a15 a24 a22 a59 a53cd a53[0] a53[1][0] a79 a68 a11 b2[0] b2[1][0] b2[1][1][0] b2[1][1][1] b2[1][1][1]b"/>
    </vehicle>
    <vehicle id="89" depart="3236.04">
        <route edges="b47 b38[1][0] b38[1][1] b39[1][0] b39[1][1][0] b46 a181 a18 a69 a161 a122 a1b a1 a204a[0] a204b[0] a204[1][0] a204[1][1]"/>
    </vehicle>
    <vehicle id="90" depart="3349.15">
        <route edges="b49[0] b49[1] b55 b35[1][1][0] b20000+35[1][1][1][0] b35[1][1][1][1] a203[1] a203[1]b a202 a34 a134 a134b a133 a31 a201 a201c a204a[0] a204b[0] a204[1][0] a204[1][1]"/>
    </vehicle>
    <vehicle id="91" depart="3392.34">
        <route edges="b49[0] b49[1] b55 b35[1][1][0] b20000+35[1][1][1][0] b35[1][1][1][1] a203[1] a203[1]b a202 a34 a134 a134b a133 a31 a201 a201c a204a[0] a204b[0] a204[1][0] a204[1][1]"/>
    </vehicle>
    <vehicle id="92" depart="3394.19">
        <route edges="a20001+87[1][0] a87[1][1] am90 a171 a161 a122 a1b a1 a204a[0] a204b[0] a204[1][0] a204[1][1]"/>
    </vehicle>
    <vehicle id="93" depart="3442.40">
        <route edges="a201 a201c a204a[0] a124 b12 b50[0] b50[1] b50[1]a a181 a18 a17 a71 a67 a80 a127 a77[1][0] a77[1][1]"/>
    </vehicle>
    <vehicle id="94" depart="3455.38">
        <route edges="a201 a201c a204a[0] a124 b12 b50[0] b50[1] b50[1]a a181 a18 a17 a71 b2[0] b2[1][0] b2[1][1][0] b2[1][1][1] b2[1][1][1]b"/>
    </vehicle>
    <vehicle id="95" depart="3469.76">
        <route edges="b49[0] b49[1] b55 b35[1][1][0] b20000+35[1][1][1][0] b35[1][1][1][1] a203[1] a203[1]b a202 a34 a134 a134b a133 a31 a201 a201c a204a[0] a204b[0] a204[1][0] a204[1][1]"/>
    </vehicle>
    <vehicle id="96" depart="3494.70">
        <route edges="a201 a201c a204a[0] a124 b12 b50[0] b50[1] b50[1]a a181 a18 a17 a71 a67 a80 a127 a77[1][0] a77[1][1]"/>
    </vehicle>
    <vehicle id="97" depart="3513.57">
        <route edges="a201 a201c a204a[0] a124 b12 b50[0] b50[1] b50[1]a a181 a18 a17 a71 b2[0] b2[1][0] b2[1][1][0] b2[1][1][1] b2[1][1][1]b"/>
    </vehicle>
    <vehicle id="98" depart="3557.79">
        <route edges="a203[0] b12 b56[0] b56[1][0] b56[1][1] b5[1][0]+66 b5[1][1][1] b8 b10"/>
    </vehicle>
    <vehicle id="99" depart="3569.72">
        <route edges="a195 a159 a42 a39 a35 a38 a15 a24 a22 a59 a53cd a53[0] a53[1][0] a79 a68 a11 b2[0] b2[1][0] b2[1][1][0] b2[1][1][1] b2[1][1][1]b"/>
    </vehicle>
</routes>
